@<TRIPOS>MOLECULE
LIG 
24 26 0 0 0
SMALL
USER_CHARGES
#CGenFF output mol2 file
@<TRIPOS>ATOM
1	C1    -6.1790   -10.4260   -24.5450	C.ar	1	LIG     0.0337
2	C2    -6.6610    -9.2100   -24.0140	C.ar	1	LIG     0.0337
3	C3    -7.6940   -10.1270   -26.6020	C.ar	1	LIG     0.0337
4	C4    -8.1750    -8.9110   -26.0710	C.ar	1	LIG     0.0337
5	C5    -7.6710    -8.4210   -24.7630	C.2	1	LIG     0.1940
6	C6    -6.6830   -10.9160   -25.8530	C.2	1	LIG     0.1940
7	C7    -5.2220   -11.1660   -23.8270	C.ar	1	LIG    -0.0503
8	C8    -6.1760    -8.7550   -22.7740	C.ar	1	LIG    -0.0503
9	C9    -8.1780   -10.5820   -27.8420	C.ar	1	LIG    -0.0503
10	C10    -9.1320    -8.1720   -26.7890	C.ar	1	LIG    -0.0503
11	C11    -5.2260    -9.4990   -22.0720	C.ar	1	LIG    -0.0615
12	C12    -9.6040    -8.6350   -28.0180	C.ar	1	LIG    -0.0615
13	C13    -9.1280    -9.8370   -28.5440	C.ar	1	LIG    -0.0615
14	C14    -4.7490   -10.7020   -22.5970	C.ar	1	LIG    -0.0615
15	O1    -8.0880    -7.3680   -24.3030	O.2	1	LIG    -0.2886
16	O2    -6.2660   -11.9700   -26.3130	O.2	1	LIG    -0.2886
17	HC    -4.8511   -12.0974   -24.2286	H	1	LIG     0.0631
18	HC1    -6.5407    -7.8252   -22.3631	H	1	LIG     0.0631
19	HC2    -7.8132   -11.5117   -28.2530	H	1	LIG     0.0631
20	HC3    -9.5037    -7.2410   -26.3871	H	1	LIG     0.0631
21	HC4    -4.8590    -9.1434   -21.1205	H	1	LIG     0.0623
22	HC5   -10.3393    -8.0619   -28.5633	H	1	LIG     0.0623
23	HC6    -9.4951   -10.1917   -29.4958	H	1	LIG     0.0623
24	HC7    -4.0134   -11.2744   -22.0514	H	1	LIG     0.0623
@<TRIPOS>BOND
1	1	2	2
2	1	6	1
3	1	7	1
4	2	5	1
5	2	8	1
6	3	4	2
7	3	6	1
8	3	9	1
9	4	5	1
10	4	10	1
11	5	15	2
12	6	16	2
13	7	14	2
14	8	11	2
15	9	13	2
16	10	12	2
17	11	14	1
18	12	13	1
19	17	7	1
20	18	8	1
21	19	9	1
22	20	10	1
23	21	11	1
24	22	12	1
25	23	13	1
26	24	14	1
